* -----------------------------------------------------------------------------
* Magic PEX Netlist
* Generated by   : magic_pex_gf180_v7.py
* Date           : 2026-06-28 10:15:10
* Original cell  : gf180mcu_fd_io__asig_5p0
* Extract cell   : gf180mcu_fd_io__asig_5p0_flat
* Mode           : rcx
* PDK variant    : gf180mcuD
* PDK_ROOT       : /foss/pdks
* Magic rcfile   : /foss/pdks/gf180mcuD/libs.tech/magic/gf180mcuD.magicrc
* Magic version  : 8.3.642
* Input file     : /foss/designs/tempo/gf180mcu_fd_io__asig_5p0.mag
* Input SHA256   : b7950e1f6a5ae4d82e0e5163045f40a82544743de6961f8f8cf58fcffcfc2c4f
* Command        : magic_pex_gf180_v7.py gf180mcu_fd_io__asig_5p0.mag --pdk gf180mcuD --mode rcx --flatten --cthresh 0 --extresist-thresh-ohm 0 --merge none --no-wrapper --check-junctions --keep-temp --log asig_5p0_rcx_magic.log --live --progress-interval 15
* Options        : flatten, mode=rcx, cthresh=0, extresist=0mohm, format=ngspice, merge=none, live
* -----------------------------------------------------------------------------

* NGSPICE file created from gf180mcu_fd_io__asig_5p0_flat.ext - technology: gf180mcuD

*.subckt gf180mcu_fd_io__asig_5p0_flat ASIG5V DVDD DVSS VDD VSS
.SUBCKT gf180mcu_fd_io__asig_5p0 DVDD ASIG5V DVSS VDD VSS
X0 DVDD.t23 VSS.t17 cap_nmos_06v0 c_width=15u c_length=15u
X1 DVDD.t12 VSS.t28 cap_nmos_06v0 c_width=15u c_length=15u
X2 DVDD.t10 VSS.t30 cap_nmos_06v0 c_width=15u c_length=15u
D0 VSS.t37 ASIG5V.t5 diode_nd2ps_06v0 pj=0.106m area=0.15n
X3 DVDD.t30 VSS.t10 cap_nmos_06v0 c_width=15u c_length=15u
X4 DVDD.t37 VSS.t3 cap_nmos_06v0 c_width=15u c_length=15u
X5 DVDD.t32 VSS.t8 cap_nmos_06v0 c_width=15u c_length=15u
X6 DVDD.t17 VSS.t23 cap_nmos_06v0 c_width=15u c_length=15u
X7 DVDD.t28 VSS.t12 cap_nmos_06v0 c_width=15u c_length=15u
X8 DVDD.t26 VSS.t14 cap_nmos_06v0 c_width=15u c_length=15u
X9 DVDD.t15 VSS.t25 cap_nmos_06v0 c_width=15u c_length=15u
D1 VSS.t37 ASIG5V.t6 diode_nd2ps_06v0 pj=0.106m area=0.15n
D2 ASIG5V.t0 DVDD.t0 diode_pd2nw_06v0 pj=0.106m area=0.15n
X10 DVDD.t33 VSS.t7 cap_nmos_06v0 c_width=15u c_length=15u
X11 DVDD.t5 VSS.t35 cap_nmos_06v0 c_width=15u c_length=15u
X12 DVDD.t38 VSS.t2 cap_nmos_06v0 c_width=15u c_length=15u
X13 DVDD.t20 VSS.t20 cap_nmos_06v0 c_width=15u c_length=15u
X14 DVDD.t18 VSS.t22 cap_nmos_06v0 c_width=15u c_length=15u
X15 DVDD.t40 VSS.t0 cap_nmos_06v0 c_width=15u c_length=15u
X16 DVDD.t21 VSS.t19 cap_nmos_06v0 c_width=15u c_length=15u
D3 ASIG5V.t1 DVDD.t0 diode_pd2nw_06v0 pj=0.106m area=0.15n
X17 DVDD.t34 VSS.t6 cap_nmos_06v0 c_width=15u c_length=15u
X18 DVDD.t8 VSS.t32 cap_nmos_06v0 c_width=15u c_length=15u
X19 DVDD.t6 VSS.t34 cap_nmos_06v0 c_width=15u c_length=15u
D4 VSS.t37 ASIG5V.t7 diode_nd2ps_06v0 pj=0.106m area=0.15n
X20 DVDD.t36 VSS.t4 cap_nmos_06v0 c_width=15u c_length=15u
X21 DVDD.t13 VSS.t27 cap_nmos_06v0 c_width=15u c_length=15u
D5 ASIG5V.t2 DVDD.t0 diode_pd2nw_06v0 pj=0.106m area=0.15n
X22 DVDD.t22 VSS.t18 cap_nmos_06v0 c_width=15u c_length=15u
X23 DVDD.t24 VSS.t16 cap_nmos_06v0 c_width=15u c_length=15u
D6 VSS.t36 DVDD.t1 diode_nd2ps_06v0 pj=82u area=40p
X24 DVDD.t14 VSS.t26 cap_nmos_06v0 c_width=15u c_length=15u
X25 DVDD.t16 VSS.t24 cap_nmos_06v0 c_width=15u c_length=15u
D7 VSS.t36 DVDD.t4 diode_nd2ps_06v0 pj=82u area=40p
X26 DVDD.t11 VSS.t29 cap_nmos_06v0 c_width=15u c_length=15u
D8 VSS.t37 ASIG5V.t4 diode_nd2ps_06v0 pj=0.106m area=0.15n
X27 DVDD.t31 VSS.t9 cap_nmos_06v0 c_width=15u c_length=15u
X28 DVDD.t27 VSS.t13 cap_nmos_06v0 c_width=15u c_length=15u
D9 VSS.t36 DVDD.t3 diode_nd2ps_06v0 pj=82u area=40p
D10 ASIG5V.t3 DVDD.t0 diode_pd2nw_06v0 pj=0.106m area=0.15n
X29 DVDD.t39 VSS.t1 cap_nmos_06v0 c_width=15u c_length=15u
X30 DVDD.t19 VSS.t21 cap_nmos_06v0 c_width=15u c_length=15u
D11 VSS.t36 DVDD.t2 diode_nd2ps_06v0 pj=82u area=40p
X31 DVDD.t9 VSS.t31 cap_nmos_06v0 c_width=15u c_length=15u
X32 DVDD.t35 VSS.t5 cap_nmos_06v0 c_width=15u c_length=15u
X33 DVDD.t7 VSS.t33 cap_nmos_06v0 c_width=15u c_length=15u
X34 DVDD.t29 VSS.t11 cap_nmos_06v0 c_width=15u c_length=15u
X35 DVDD.t25 VSS.t15 cap_nmos_06v0 c_width=15u c_length=15u
R0 VDD.n605 VDD.n604 4.78203
R1 VDD VDD.n392 0.455993
R2 VDD.n591 VDD.n588 0.455564
R3 VDD.n612 VDD.n610 0.455539
R4 VDD VDD.n101 0.451464
R5 VDD.n101 VDD 0.450929
R6 VDD.n394 VDD.n393 0.4505
R7 VDD.n396 VDD.n395 0.4505
R8 VDD.n391 VDD.n390 0.4505
R9 VDD.n401 VDD.n400 0.4505
R10 VDD.n402 VDD.n389 0.4505
R11 VDD.n404 VDD.n403 0.4505
R12 VDD.n387 VDD.n386 0.4505
R13 VDD.n409 VDD.n408 0.4505
R14 VDD.n410 VDD.n385 0.4505
R15 VDD.n412 VDD.n411 0.4505
R16 VDD.n383 VDD.n382 0.4505
R17 VDD.n417 VDD.n416 0.4505
R18 VDD.n418 VDD.n381 0.4505
R19 VDD.n420 VDD.n419 0.4505
R20 VDD.n379 VDD.n378 0.4505
R21 VDD.n425 VDD.n424 0.4505
R22 VDD.n426 VDD.n377 0.4505
R23 VDD.n428 VDD.n427 0.4505
R24 VDD.n375 VDD.n374 0.4505
R25 VDD.n433 VDD.n432 0.4505
R26 VDD.n434 VDD.n373 0.4505
R27 VDD.n436 VDD.n435 0.4505
R28 VDD.n371 VDD.n370 0.4505
R29 VDD.n441 VDD.n440 0.4505
R30 VDD.n442 VDD.n369 0.4505
R31 VDD.n444 VDD.n443 0.4505
R32 VDD.n367 VDD.n366 0.4505
R33 VDD.n449 VDD.n448 0.4505
R34 VDD.n450 VDD.n365 0.4505
R35 VDD.n452 VDD.n451 0.4505
R36 VDD.n363 VDD.n362 0.4505
R37 VDD.n457 VDD.n456 0.4505
R38 VDD.n458 VDD.n361 0.4505
R39 VDD.n460 VDD.n459 0.4505
R40 VDD.n359 VDD.n358 0.4505
R41 VDD.n465 VDD.n464 0.4505
R42 VDD.n466 VDD.n357 0.4505
R43 VDD.n468 VDD.n467 0.4505
R44 VDD.n355 VDD.n354 0.4505
R45 VDD.n473 VDD.n472 0.4505
R46 VDD.n474 VDD.n353 0.4505
R47 VDD.n476 VDD.n475 0.4505
R48 VDD.n351 VDD.n350 0.4505
R49 VDD.n481 VDD.n480 0.4505
R50 VDD.n482 VDD.n349 0.4505
R51 VDD.n484 VDD.n483 0.4505
R52 VDD.n347 VDD.n346 0.4505
R53 VDD.n489 VDD.n488 0.4505
R54 VDD.n490 VDD.n345 0.4505
R55 VDD.n492 VDD.n491 0.4505
R56 VDD.n343 VDD.n342 0.4505
R57 VDD.n497 VDD.n496 0.4505
R58 VDD.n498 VDD.n341 0.4505
R59 VDD.n500 VDD.n499 0.4505
R60 VDD.n339 VDD.n338 0.4505
R61 VDD.n505 VDD.n504 0.4505
R62 VDD.n506 VDD.n337 0.4505
R63 VDD.n508 VDD.n507 0.4505
R64 VDD.n335 VDD.n334 0.4505
R65 VDD.n513 VDD.n512 0.4505
R66 VDD.n514 VDD.n333 0.4505
R67 VDD.n516 VDD.n515 0.4505
R68 VDD.n331 VDD.n330 0.4505
R69 VDD.n521 VDD.n520 0.4505
R70 VDD.n522 VDD.n329 0.4505
R71 VDD.n524 VDD.n523 0.4505
R72 VDD.n327 VDD.n326 0.4505
R73 VDD.n529 VDD.n528 0.4505
R74 VDD.n530 VDD.n325 0.4505
R75 VDD.n532 VDD.n531 0.4505
R76 VDD.n323 VDD.n322 0.4505
R77 VDD.n537 VDD.n536 0.4505
R78 VDD.n538 VDD.n321 0.4505
R79 VDD.n540 VDD.n539 0.4505
R80 VDD.n319 VDD.n318 0.4505
R81 VDD.n545 VDD.n544 0.4505
R82 VDD.n546 VDD.n317 0.4505
R83 VDD.n548 VDD.n547 0.4505
R84 VDD.n315 VDD.n314 0.4505
R85 VDD.n553 VDD.n552 0.4505
R86 VDD.n554 VDD.n313 0.4505
R87 VDD.n556 VDD.n555 0.4505
R88 VDD.n311 VDD.n310 0.4505
R89 VDD.n561 VDD.n560 0.4505
R90 VDD.n562 VDD.n309 0.4505
R91 VDD.n564 VDD.n563 0.4505
R92 VDD.n307 VDD.n306 0.4505
R93 VDD.n569 VDD.n568 0.4505
R94 VDD.n570 VDD.n305 0.4505
R95 VDD.n572 VDD.n571 0.4505
R96 VDD.n303 VDD.n302 0.4505
R97 VDD.n577 VDD.n576 0.4505
R98 VDD.n578 VDD.n301 0.4505
R99 VDD.n580 VDD.n579 0.4505
R100 VDD.n299 VDD.n298 0.4505
R101 VDD.n585 VDD.n584 0.4505
R102 VDD.n586 VDD.n297 0.4505
R103 VDD.n601 VDD.n600 0.4505
R104 VDD.n599 VDD.n598 0.4505
R105 VDD.n590 VDD.n587 0.4505
R106 VDD.n594 VDD.n593 0.4505
R107 VDD.n592 VDD.n589 0.4505
R108 VDD.n297 VDD.n296 0.4505
R109 VDD.n584 VDD.n583 0.4505
R110 VDD.n582 VDD.n299 0.4505
R111 VDD.n581 VDD.n580 0.4505
R112 VDD.n301 VDD.n300 0.4505
R113 VDD.n576 VDD.n575 0.4505
R114 VDD.n574 VDD.n303 0.4505
R115 VDD.n573 VDD.n572 0.4505
R116 VDD.n305 VDD.n304 0.4505
R117 VDD.n568 VDD.n567 0.4505
R118 VDD.n566 VDD.n307 0.4505
R119 VDD.n565 VDD.n564 0.4505
R120 VDD.n309 VDD.n308 0.4505
R121 VDD.n560 VDD.n559 0.4505
R122 VDD.n558 VDD.n311 0.4505
R123 VDD.n557 VDD.n556 0.4505
R124 VDD.n313 VDD.n312 0.4505
R125 VDD.n552 VDD.n551 0.4505
R126 VDD.n550 VDD.n315 0.4505
R127 VDD.n549 VDD.n548 0.4505
R128 VDD.n317 VDD.n316 0.4505
R129 VDD.n544 VDD.n543 0.4505
R130 VDD.n542 VDD.n319 0.4505
R131 VDD.n541 VDD.n540 0.4505
R132 VDD.n321 VDD.n320 0.4505
R133 VDD.n536 VDD.n535 0.4505
R134 VDD.n534 VDD.n323 0.4505
R135 VDD.n533 VDD.n532 0.4505
R136 VDD.n325 VDD.n324 0.4505
R137 VDD.n528 VDD.n527 0.4505
R138 VDD.n526 VDD.n327 0.4505
R139 VDD.n525 VDD.n524 0.4505
R140 VDD.n329 VDD.n328 0.4505
R141 VDD.n520 VDD.n519 0.4505
R142 VDD.n518 VDD.n331 0.4505
R143 VDD.n517 VDD.n516 0.4505
R144 VDD.n333 VDD.n332 0.4505
R145 VDD.n512 VDD.n511 0.4505
R146 VDD.n510 VDD.n335 0.4505
R147 VDD.n509 VDD.n508 0.4505
R148 VDD.n337 VDD.n336 0.4505
R149 VDD.n504 VDD.n503 0.4505
R150 VDD.n502 VDD.n339 0.4505
R151 VDD.n501 VDD.n500 0.4505
R152 VDD.n341 VDD.n340 0.4505
R153 VDD.n496 VDD.n495 0.4505
R154 VDD.n494 VDD.n343 0.4505
R155 VDD.n493 VDD.n492 0.4505
R156 VDD.n345 VDD.n344 0.4505
R157 VDD.n488 VDD.n487 0.4505
R158 VDD.n486 VDD.n347 0.4505
R159 VDD.n485 VDD.n484 0.4505
R160 VDD.n349 VDD.n348 0.4505
R161 VDD.n480 VDD.n479 0.4505
R162 VDD.n478 VDD.n351 0.4505
R163 VDD.n477 VDD.n476 0.4505
R164 VDD.n353 VDD.n352 0.4505
R165 VDD.n472 VDD.n471 0.4505
R166 VDD.n470 VDD.n355 0.4505
R167 VDD.n469 VDD.n468 0.4505
R168 VDD.n357 VDD.n356 0.4505
R169 VDD.n464 VDD.n463 0.4505
R170 VDD.n462 VDD.n359 0.4505
R171 VDD.n461 VDD.n460 0.4505
R172 VDD.n361 VDD.n360 0.4505
R173 VDD.n456 VDD.n455 0.4505
R174 VDD.n454 VDD.n363 0.4505
R175 VDD.n453 VDD.n452 0.4505
R176 VDD.n365 VDD.n364 0.4505
R177 VDD.n448 VDD.n447 0.4505
R178 VDD.n446 VDD.n367 0.4505
R179 VDD.n445 VDD.n444 0.4505
R180 VDD.n369 VDD.n368 0.4505
R181 VDD.n440 VDD.n439 0.4505
R182 VDD.n438 VDD.n371 0.4505
R183 VDD.n437 VDD.n436 0.4505
R184 VDD.n373 VDD.n372 0.4505
R185 VDD.n432 VDD.n431 0.4505
R186 VDD.n430 VDD.n375 0.4505
R187 VDD.n429 VDD.n428 0.4505
R188 VDD.n377 VDD.n376 0.4505
R189 VDD.n424 VDD.n423 0.4505
R190 VDD.n422 VDD.n379 0.4505
R191 VDD.n421 VDD.n420 0.4505
R192 VDD.n381 VDD.n380 0.4505
R193 VDD.n416 VDD.n415 0.4505
R194 VDD.n414 VDD.n383 0.4505
R195 VDD.n413 VDD.n412 0.4505
R196 VDD.n385 VDD.n384 0.4505
R197 VDD.n408 VDD.n407 0.4505
R198 VDD.n406 VDD.n387 0.4505
R199 VDD.n405 VDD.n404 0.4505
R200 VDD.n389 VDD.n388 0.4505
R201 VDD.n400 VDD.n399 0.4505
R202 VDD.n398 VDD.n391 0.4505
R203 VDD.n397 VDD.n396 0.4505
R204 VDD.n602 VDD.n601 0.4505
R205 VDD.n598 VDD.n597 0.4505
R206 VDD.n596 VDD.n587 0.4505
R207 VDD.n595 VDD.n594 0.4505
R208 VDD.n100 VDD.n99 0.4505
R209 VDD.n105 VDD.n104 0.4505
R210 VDD.n106 VDD.n98 0.4505
R211 VDD.n108 VDD.n107 0.4505
R212 VDD.n96 VDD.n95 0.4505
R213 VDD.n113 VDD.n112 0.4505
R214 VDD.n114 VDD.n94 0.4505
R215 VDD.n116 VDD.n115 0.4505
R216 VDD.n92 VDD.n91 0.4505
R217 VDD.n121 VDD.n120 0.4505
R218 VDD.n122 VDD.n90 0.4505
R219 VDD.n124 VDD.n123 0.4505
R220 VDD.n88 VDD.n87 0.4505
R221 VDD.n129 VDD.n128 0.4505
R222 VDD.n130 VDD.n86 0.4505
R223 VDD.n132 VDD.n131 0.4505
R224 VDD.n84 VDD.n83 0.4505
R225 VDD.n137 VDD.n136 0.4505
R226 VDD.n138 VDD.n82 0.4505
R227 VDD.n140 VDD.n139 0.4505
R228 VDD.n80 VDD.n79 0.4505
R229 VDD.n145 VDD.n144 0.4505
R230 VDD.n146 VDD.n78 0.4505
R231 VDD.n148 VDD.n147 0.4505
R232 VDD.n76 VDD.n75 0.4505
R233 VDD.n153 VDD.n152 0.4505
R234 VDD.n154 VDD.n74 0.4505
R235 VDD.n156 VDD.n155 0.4505
R236 VDD.n72 VDD.n71 0.4505
R237 VDD.n161 VDD.n160 0.4505
R238 VDD.n162 VDD.n70 0.4505
R239 VDD.n164 VDD.n163 0.4505
R240 VDD.n68 VDD.n67 0.4505
R241 VDD.n169 VDD.n168 0.4505
R242 VDD.n170 VDD.n66 0.4505
R243 VDD.n172 VDD.n171 0.4505
R244 VDD.n64 VDD.n63 0.4505
R245 VDD.n177 VDD.n176 0.4505
R246 VDD.n178 VDD.n62 0.4505
R247 VDD.n180 VDD.n179 0.4505
R248 VDD.n60 VDD.n59 0.4505
R249 VDD.n185 VDD.n184 0.4505
R250 VDD.n186 VDD.n58 0.4505
R251 VDD.n188 VDD.n187 0.4505
R252 VDD.n56 VDD.n55 0.4505
R253 VDD.n193 VDD.n192 0.4505
R254 VDD.n194 VDD.n54 0.4505
R255 VDD.n196 VDD.n195 0.4505
R256 VDD.n52 VDD.n51 0.4505
R257 VDD.n201 VDD.n200 0.4505
R258 VDD.n202 VDD.n50 0.4505
R259 VDD.n204 VDD.n203 0.4505
R260 VDD.n48 VDD.n47 0.4505
R261 VDD.n209 VDD.n208 0.4505
R262 VDD.n210 VDD.n46 0.4505
R263 VDD.n212 VDD.n211 0.4505
R264 VDD.n44 VDD.n43 0.4505
R265 VDD.n217 VDD.n216 0.4505
R266 VDD.n218 VDD.n42 0.4505
R267 VDD.n220 VDD.n219 0.4505
R268 VDD.n40 VDD.n39 0.4505
R269 VDD.n225 VDD.n224 0.4505
R270 VDD.n226 VDD.n38 0.4505
R271 VDD.n228 VDD.n227 0.4505
R272 VDD.n36 VDD.n35 0.4505
R273 VDD.n233 VDD.n232 0.4505
R274 VDD.n234 VDD.n34 0.4505
R275 VDD.n236 VDD.n235 0.4505
R276 VDD.n32 VDD.n31 0.4505
R277 VDD.n241 VDD.n240 0.4505
R278 VDD.n242 VDD.n30 0.4505
R279 VDD.n244 VDD.n243 0.4505
R280 VDD.n28 VDD.n27 0.4505
R281 VDD.n249 VDD.n248 0.4505
R282 VDD.n250 VDD.n26 0.4505
R283 VDD.n252 VDD.n251 0.4505
R284 VDD.n24 VDD.n23 0.4505
R285 VDD.n257 VDD.n256 0.4505
R286 VDD.n258 VDD.n22 0.4505
R287 VDD.n260 VDD.n259 0.4505
R288 VDD.n20 VDD.n19 0.4505
R289 VDD.n265 VDD.n264 0.4505
R290 VDD.n266 VDD.n18 0.4505
R291 VDD.n268 VDD.n267 0.4505
R292 VDD.n16 VDD.n15 0.4505
R293 VDD.n273 VDD.n272 0.4505
R294 VDD.n274 VDD.n14 0.4505
R295 VDD.n276 VDD.n275 0.4505
R296 VDD.n12 VDD.n11 0.4505
R297 VDD.n281 VDD.n280 0.4505
R298 VDD.n282 VDD.n10 0.4505
R299 VDD.n284 VDD.n283 0.4505
R300 VDD.n8 VDD.n7 0.4505
R301 VDD.n289 VDD.n288 0.4505
R302 VDD.n290 VDD.n6 0.4505
R303 VDD.n292 VDD.n291 0.4505
R304 VDD.n4 VDD.n3 0.4505
R305 VDD.n609 VDD.n608 0.4505
R306 VDD.n619 VDD.n618 0.4505
R307 VDD.n617 VDD.n2 0.4505
R308 VDD.n616 VDD.n615 0.4505
R309 VDD.n294 VDD.n4 0.4505
R310 VDD.n293 VDD.n292 0.4505
R311 VDD.n6 VDD.n5 0.4505
R312 VDD.n288 VDD.n287 0.4505
R313 VDD.n286 VDD.n8 0.4505
R314 VDD.n285 VDD.n284 0.4505
R315 VDD.n10 VDD.n9 0.4505
R316 VDD.n280 VDD.n279 0.4505
R317 VDD.n278 VDD.n12 0.4505
R318 VDD.n277 VDD.n276 0.4505
R319 VDD.n14 VDD.n13 0.4505
R320 VDD.n272 VDD.n271 0.4505
R321 VDD.n270 VDD.n16 0.4505
R322 VDD.n269 VDD.n268 0.4505
R323 VDD.n18 VDD.n17 0.4505
R324 VDD.n264 VDD.n263 0.4505
R325 VDD.n262 VDD.n20 0.4505
R326 VDD.n261 VDD.n260 0.4505
R327 VDD.n22 VDD.n21 0.4505
R328 VDD.n256 VDD.n255 0.4505
R329 VDD.n254 VDD.n24 0.4505
R330 VDD.n253 VDD.n252 0.4505
R331 VDD.n26 VDD.n25 0.4505
R332 VDD.n248 VDD.n247 0.4505
R333 VDD.n246 VDD.n28 0.4505
R334 VDD.n245 VDD.n244 0.4505
R335 VDD.n30 VDD.n29 0.4505
R336 VDD.n240 VDD.n239 0.4505
R337 VDD.n238 VDD.n32 0.4505
R338 VDD.n237 VDD.n236 0.4505
R339 VDD.n34 VDD.n33 0.4505
R340 VDD.n232 VDD.n231 0.4505
R341 VDD.n230 VDD.n36 0.4505
R342 VDD.n229 VDD.n228 0.4505
R343 VDD.n38 VDD.n37 0.4505
R344 VDD.n224 VDD.n223 0.4505
R345 VDD.n222 VDD.n40 0.4505
R346 VDD.n221 VDD.n220 0.4505
R347 VDD.n42 VDD.n41 0.4505
R348 VDD.n216 VDD.n215 0.4505
R349 VDD.n214 VDD.n44 0.4505
R350 VDD.n213 VDD.n212 0.4505
R351 VDD.n46 VDD.n45 0.4505
R352 VDD.n208 VDD.n207 0.4505
R353 VDD.n206 VDD.n48 0.4505
R354 VDD.n205 VDD.n204 0.4505
R355 VDD.n50 VDD.n49 0.4505
R356 VDD.n200 VDD.n199 0.4505
R357 VDD.n198 VDD.n52 0.4505
R358 VDD.n197 VDD.n196 0.4505
R359 VDD.n54 VDD.n53 0.4505
R360 VDD.n192 VDD.n191 0.4505
R361 VDD.n190 VDD.n56 0.4505
R362 VDD.n189 VDD.n188 0.4505
R363 VDD.n58 VDD.n57 0.4505
R364 VDD.n184 VDD.n183 0.4505
R365 VDD.n182 VDD.n60 0.4505
R366 VDD.n181 VDD.n180 0.4505
R367 VDD.n62 VDD.n61 0.4505
R368 VDD.n176 VDD.n175 0.4505
R369 VDD.n174 VDD.n64 0.4505
R370 VDD.n173 VDD.n172 0.4505
R371 VDD.n66 VDD.n65 0.4505
R372 VDD.n168 VDD.n167 0.4505
R373 VDD.n166 VDD.n68 0.4505
R374 VDD.n165 VDD.n164 0.4505
R375 VDD.n70 VDD.n69 0.4505
R376 VDD.n160 VDD.n159 0.4505
R377 VDD.n158 VDD.n72 0.4505
R378 VDD.n157 VDD.n156 0.4505
R379 VDD.n74 VDD.n73 0.4505
R380 VDD.n152 VDD.n151 0.4505
R381 VDD.n150 VDD.n76 0.4505
R382 VDD.n149 VDD.n148 0.4505
R383 VDD.n78 VDD.n77 0.4505
R384 VDD.n144 VDD.n143 0.4505
R385 VDD.n142 VDD.n80 0.4505
R386 VDD.n141 VDD.n140 0.4505
R387 VDD.n82 VDD.n81 0.4505
R388 VDD.n136 VDD.n135 0.4505
R389 VDD.n134 VDD.n84 0.4505
R390 VDD.n133 VDD.n132 0.4505
R391 VDD.n86 VDD.n85 0.4505
R392 VDD.n128 VDD.n127 0.4505
R393 VDD.n126 VDD.n88 0.4505
R394 VDD.n125 VDD.n124 0.4505
R395 VDD.n90 VDD.n89 0.4505
R396 VDD.n120 VDD.n119 0.4505
R397 VDD.n118 VDD.n92 0.4505
R398 VDD.n117 VDD.n116 0.4505
R399 VDD.n94 VDD.n93 0.4505
R400 VDD.n112 VDD.n111 0.4505
R401 VDD.n110 VDD.n96 0.4505
R402 VDD.n109 VDD.n108 0.4505
R403 VDD.n98 VDD.n97 0.4505
R404 VDD.n104 VDD.n103 0.4505
R405 VDD.n102 VDD.n100 0.4505
R406 VDD.n608 VDD.n607 0.4505
R407 VDD.n620 VDD.n619 0.4505
R408 VDD.n2 VDD.n1 0.4505
R409 VDD.n615 VDD.n614 0.4505
R410 VDD.n613 VDD.n611 0.4505
R411 VDD.n604 VDD.n295 0.412134
R412 VDD.n606 VDD.n605 0.412128
R413 VDD.n604 VDD.n603 0.412036
R414 VDD.n605 VDD.n0 0.411993
R415 VDD.n397 VDD.n392 0.235129
R416 VDD.n595 VDD.n588 0.235129
R417 VDD.n616 VDD.n610 0.228808
R418 VDD.n612 VDD 0.01265
R419 VDD.n396 VDD.n393 0.00962857
R420 VDD.n396 VDD.n391 0.00962857
R421 VDD.n400 VDD.n391 0.00962857
R422 VDD.n400 VDD.n389 0.00962857
R423 VDD.n404 VDD.n389 0.00962857
R424 VDD.n404 VDD.n387 0.00962857
R425 VDD.n408 VDD.n387 0.00962857
R426 VDD.n408 VDD.n385 0.00962857
R427 VDD.n412 VDD.n385 0.00962857
R428 VDD.n412 VDD.n383 0.00962857
R429 VDD.n416 VDD.n383 0.00962857
R430 VDD.n416 VDD.n381 0.00962857
R431 VDD.n420 VDD.n381 0.00962857
R432 VDD.n420 VDD.n379 0.00962857
R433 VDD.n424 VDD.n379 0.00962857
R434 VDD.n424 VDD.n377 0.00962857
R435 VDD.n428 VDD.n377 0.00962857
R436 VDD.n428 VDD.n375 0.00962857
R437 VDD.n432 VDD.n375 0.00962857
R438 VDD.n432 VDD.n373 0.00962857
R439 VDD.n436 VDD.n373 0.00962857
R440 VDD.n436 VDD.n371 0.00962857
R441 VDD.n440 VDD.n371 0.00962857
R442 VDD.n440 VDD.n369 0.00962857
R443 VDD.n444 VDD.n369 0.00962857
R444 VDD.n444 VDD.n367 0.00962857
R445 VDD.n448 VDD.n367 0.00962857
R446 VDD.n448 VDD.n365 0.00962857
R447 VDD.n452 VDD.n365 0.00962857
R448 VDD.n452 VDD.n363 0.00962857
R449 VDD.n456 VDD.n363 0.00962857
R450 VDD.n456 VDD.n361 0.00962857
R451 VDD.n460 VDD.n361 0.00962857
R452 VDD.n460 VDD.n359 0.00962857
R453 VDD.n464 VDD.n359 0.00962857
R454 VDD.n464 VDD.n357 0.00962857
R455 VDD.n468 VDD.n357 0.00962857
R456 VDD.n468 VDD.n355 0.00962857
R457 VDD.n472 VDD.n355 0.00962857
R458 VDD.n472 VDD.n353 0.00962857
R459 VDD.n476 VDD.n353 0.00962857
R460 VDD.n476 VDD.n351 0.00962857
R461 VDD.n480 VDD.n351 0.00962857
R462 VDD.n480 VDD.n349 0.00962857
R463 VDD.n484 VDD.n349 0.00962857
R464 VDD.n484 VDD.n347 0.00962857
R465 VDD.n488 VDD.n347 0.00962857
R466 VDD.n488 VDD.n345 0.00962857
R467 VDD.n492 VDD.n345 0.00962857
R468 VDD.n492 VDD.n343 0.00962857
R469 VDD.n496 VDD.n343 0.00962857
R470 VDD.n496 VDD.n341 0.00962857
R471 VDD.n500 VDD.n341 0.00962857
R472 VDD.n500 VDD.n339 0.00962857
R473 VDD.n504 VDD.n339 0.00962857
R474 VDD.n504 VDD.n337 0.00962857
R475 VDD.n508 VDD.n337 0.00962857
R476 VDD.n508 VDD.n335 0.00962857
R477 VDD.n512 VDD.n335 0.00962857
R478 VDD.n512 VDD.n333 0.00962857
R479 VDD.n516 VDD.n333 0.00962857
R480 VDD.n516 VDD.n331 0.00962857
R481 VDD.n520 VDD.n331 0.00962857
R482 VDD.n520 VDD.n329 0.00962857
R483 VDD.n524 VDD.n329 0.00962857
R484 VDD.n524 VDD.n327 0.00962857
R485 VDD.n528 VDD.n327 0.00962857
R486 VDD.n528 VDD.n325 0.00962857
R487 VDD.n532 VDD.n325 0.00962857
R488 VDD.n532 VDD.n323 0.00962857
R489 VDD.n536 VDD.n323 0.00962857
R490 VDD.n536 VDD.n321 0.00962857
R491 VDD.n540 VDD.n321 0.00962857
R492 VDD.n540 VDD.n319 0.00962857
R493 VDD.n544 VDD.n319 0.00962857
R494 VDD.n544 VDD.n317 0.00962857
R495 VDD.n548 VDD.n317 0.00962857
R496 VDD.n548 VDD.n315 0.00962857
R497 VDD.n552 VDD.n315 0.00962857
R498 VDD.n552 VDD.n313 0.00962857
R499 VDD.n556 VDD.n313 0.00962857
R500 VDD.n556 VDD.n311 0.00962857
R501 VDD.n560 VDD.n311 0.00962857
R502 VDD.n560 VDD.n309 0.00962857
R503 VDD.n564 VDD.n309 0.00962857
R504 VDD.n564 VDD.n307 0.00962857
R505 VDD.n568 VDD.n307 0.00962857
R506 VDD.n568 VDD.n305 0.00962857
R507 VDD.n572 VDD.n305 0.00962857
R508 VDD.n572 VDD.n303 0.00962857
R509 VDD.n576 VDD.n303 0.00962857
R510 VDD.n576 VDD.n301 0.00962857
R511 VDD.n580 VDD.n301 0.00962857
R512 VDD.n580 VDD.n299 0.00962857
R513 VDD.n584 VDD.n299 0.00962857
R514 VDD.n584 VDD.n297 0.00962857
R515 VDD.n601 VDD.n297 0.00962857
R516 VDD.n598 VDD.n587 0.00962857
R517 VDD.n594 VDD.n587 0.00962857
R518 VDD.n594 VDD.n589 0.00962857
R519 VDD.n398 VDD.n397 0.00962857
R520 VDD.n399 VDD.n398 0.00962857
R521 VDD.n399 VDD.n388 0.00962857
R522 VDD.n405 VDD.n388 0.00962857
R523 VDD.n406 VDD.n405 0.00962857
R524 VDD.n407 VDD.n406 0.00962857
R525 VDD.n407 VDD.n384 0.00962857
R526 VDD.n413 VDD.n384 0.00962857
R527 VDD.n414 VDD.n413 0.00962857
R528 VDD.n415 VDD.n414 0.00962857
R529 VDD.n415 VDD.n380 0.00962857
R530 VDD.n421 VDD.n380 0.00962857
R531 VDD.n422 VDD.n421 0.00962857
R532 VDD.n423 VDD.n422 0.00962857
R533 VDD.n423 VDD.n376 0.00962857
R534 VDD.n429 VDD.n376 0.00962857
R535 VDD.n430 VDD.n429 0.00962857
R536 VDD.n431 VDD.n430 0.00962857
R537 VDD.n431 VDD.n372 0.00962857
R538 VDD.n437 VDD.n372 0.00962857
R539 VDD.n438 VDD.n437 0.00962857
R540 VDD.n439 VDD.n438 0.00962857
R541 VDD.n439 VDD.n368 0.00962857
R542 VDD.n445 VDD.n368 0.00962857
R543 VDD.n446 VDD.n445 0.00962857
R544 VDD.n447 VDD.n446 0.00962857
R545 VDD.n447 VDD.n364 0.00962857
R546 VDD.n453 VDD.n364 0.00962857
R547 VDD.n454 VDD.n453 0.00962857
R548 VDD.n455 VDD.n454 0.00962857
R549 VDD.n455 VDD.n360 0.00962857
R550 VDD.n461 VDD.n360 0.00962857
R551 VDD.n462 VDD.n461 0.00962857
R552 VDD.n463 VDD.n462 0.00962857
R553 VDD.n463 VDD.n356 0.00962857
R554 VDD.n469 VDD.n356 0.00962857
R555 VDD.n470 VDD.n469 0.00962857
R556 VDD.n471 VDD.n470 0.00962857
R557 VDD.n471 VDD.n352 0.00962857
R558 VDD.n477 VDD.n352 0.00962857
R559 VDD.n478 VDD.n477 0.00962857
R560 VDD.n479 VDD.n478 0.00962857
R561 VDD.n479 VDD.n348 0.00962857
R562 VDD.n485 VDD.n348 0.00962857
R563 VDD.n486 VDD.n485 0.00962857
R564 VDD.n487 VDD.n486 0.00962857
R565 VDD.n487 VDD.n344 0.00962857
R566 VDD.n493 VDD.n344 0.00962857
R567 VDD.n494 VDD.n493 0.00962857
R568 VDD.n495 VDD.n494 0.00962857
R569 VDD.n495 VDD.n340 0.00962857
R570 VDD.n501 VDD.n340 0.00962857
R571 VDD.n502 VDD.n501 0.00962857
R572 VDD.n503 VDD.n502 0.00962857
R573 VDD.n503 VDD.n336 0.00962857
R574 VDD.n509 VDD.n336 0.00962857
R575 VDD.n510 VDD.n509 0.00962857
R576 VDD.n511 VDD.n510 0.00962857
R577 VDD.n511 VDD.n332 0.00962857
R578 VDD.n517 VDD.n332 0.00962857
R579 VDD.n518 VDD.n517 0.00962857
R580 VDD.n519 VDD.n518 0.00962857
R581 VDD.n519 VDD.n328 0.00962857
R582 VDD.n525 VDD.n328 0.00962857
R583 VDD.n526 VDD.n525 0.00962857
R584 VDD.n527 VDD.n526 0.00962857
R585 VDD.n527 VDD.n324 0.00962857
R586 VDD.n533 VDD.n324 0.00962857
R587 VDD.n534 VDD.n533 0.00962857
R588 VDD.n535 VDD.n534 0.00962857
R589 VDD.n535 VDD.n320 0.00962857
R590 VDD.n541 VDD.n320 0.00962857
R591 VDD.n542 VDD.n541 0.00962857
R592 VDD.n543 VDD.n542 0.00962857
R593 VDD.n543 VDD.n316 0.00962857
R594 VDD.n549 VDD.n316 0.00962857
R595 VDD.n550 VDD.n549 0.00962857
R596 VDD.n551 VDD.n550 0.00962857
R597 VDD.n551 VDD.n312 0.00962857
R598 VDD.n557 VDD.n312 0.00962857
R599 VDD.n558 VDD.n557 0.00962857
R600 VDD.n559 VDD.n558 0.00962857
R601 VDD.n559 VDD.n308 0.00962857
R602 VDD.n565 VDD.n308 0.00962857
R603 VDD.n566 VDD.n565 0.00962857
R604 VDD.n567 VDD.n566 0.00962857
R605 VDD.n567 VDD.n304 0.00962857
R606 VDD.n573 VDD.n304 0.00962857
R607 VDD.n574 VDD.n573 0.00962857
R608 VDD.n575 VDD.n574 0.00962857
R609 VDD.n575 VDD.n300 0.00962857
R610 VDD.n581 VDD.n300 0.00962857
R611 VDD.n582 VDD.n581 0.00962857
R612 VDD.n583 VDD.n582 0.00962857
R613 VDD.n583 VDD.n296 0.00962857
R614 VDD.n597 VDD.n596 0.00962857
R615 VDD.n596 VDD.n595 0.00962857
R616 VDD.n101 VDD.n100 0.00962857
R617 VDD.n104 VDD.n100 0.00962857
R618 VDD.n104 VDD.n98 0.00962857
R619 VDD.n108 VDD.n98 0.00962857
R620 VDD.n108 VDD.n96 0.00962857
R621 VDD.n112 VDD.n96 0.00962857
R622 VDD.n112 VDD.n94 0.00962857
R623 VDD.n116 VDD.n94 0.00962857
R624 VDD.n116 VDD.n92 0.00962857
R625 VDD.n120 VDD.n92 0.00962857
R626 VDD.n120 VDD.n90 0.00962857
R627 VDD.n124 VDD.n90 0.00962857
R628 VDD.n124 VDD.n88 0.00962857
R629 VDD.n128 VDD.n88 0.00962857
R630 VDD.n128 VDD.n86 0.00962857
R631 VDD.n132 VDD.n86 0.00962857
R632 VDD.n132 VDD.n84 0.00962857
R633 VDD.n136 VDD.n84 0.00962857
R634 VDD.n136 VDD.n82 0.00962857
R635 VDD.n140 VDD.n82 0.00962857
R636 VDD.n140 VDD.n80 0.00962857
R637 VDD.n144 VDD.n80 0.00962857
R638 VDD.n144 VDD.n78 0.00962857
R639 VDD.n148 VDD.n78 0.00962857
R640 VDD.n148 VDD.n76 0.00962857
R641 VDD.n152 VDD.n76 0.00962857
R642 VDD.n152 VDD.n74 0.00962857
R643 VDD.n156 VDD.n74 0.00962857
R644 VDD.n156 VDD.n72 0.00962857
R645 VDD.n160 VDD.n72 0.00962857
R646 VDD.n160 VDD.n70 0.00962857
R647 VDD.n164 VDD.n70 0.00962857
R648 VDD.n164 VDD.n68 0.00962857
R649 VDD.n168 VDD.n68 0.00962857
R650 VDD.n168 VDD.n66 0.00962857
R651 VDD.n172 VDD.n66 0.00962857
R652 VDD.n172 VDD.n64 0.00962857
R653 VDD.n176 VDD.n64 0.00962857
R654 VDD.n176 VDD.n62 0.00962857
R655 VDD.n180 VDD.n62 0.00962857
R656 VDD.n180 VDD.n60 0.00962857
R657 VDD.n184 VDD.n60 0.00962857
R658 VDD.n184 VDD.n58 0.00962857
R659 VDD.n188 VDD.n58 0.00962857
R660 VDD.n188 VDD.n56 0.00962857
R661 VDD.n192 VDD.n56 0.00962857
R662 VDD.n192 VDD.n54 0.00962857
R663 VDD.n196 VDD.n54 0.00962857
R664 VDD.n196 VDD.n52 0.00962857
R665 VDD.n200 VDD.n52 0.00962857
R666 VDD.n200 VDD.n50 0.00962857
R667 VDD.n204 VDD.n50 0.00962857
R668 VDD.n204 VDD.n48 0.00962857
R669 VDD.n208 VDD.n48 0.00962857
R670 VDD.n208 VDD.n46 0.00962857
R671 VDD.n212 VDD.n46 0.00962857
R672 VDD.n212 VDD.n44 0.00962857
R673 VDD.n216 VDD.n44 0.00962857
R674 VDD.n216 VDD.n42 0.00962857
R675 VDD.n220 VDD.n42 0.00962857
R676 VDD.n220 VDD.n40 0.00962857
R677 VDD.n224 VDD.n40 0.00962857
R678 VDD.n224 VDD.n38 0.00962857
R679 VDD.n228 VDD.n38 0.00962857
R680 VDD.n228 VDD.n36 0.00962857
R681 VDD.n232 VDD.n36 0.00962857
R682 VDD.n232 VDD.n34 0.00962857
R683 VDD.n236 VDD.n34 0.00962857
R684 VDD.n236 VDD.n32 0.00962857
R685 VDD.n240 VDD.n32 0.00962857
R686 VDD.n240 VDD.n30 0.00962857
R687 VDD.n244 VDD.n30 0.00962857
R688 VDD.n244 VDD.n28 0.00962857
R689 VDD.n248 VDD.n28 0.00962857
R690 VDD.n248 VDD.n26 0.00962857
R691 VDD.n252 VDD.n26 0.00962857
R692 VDD.n252 VDD.n24 0.00962857
R693 VDD.n256 VDD.n24 0.00962857
R694 VDD.n256 VDD.n22 0.00962857
R695 VDD.n260 VDD.n22 0.00962857
R696 VDD.n260 VDD.n20 0.00962857
R697 VDD.n264 VDD.n20 0.00962857
R698 VDD.n264 VDD.n18 0.00962857
R699 VDD.n268 VDD.n18 0.00962857
R700 VDD.n268 VDD.n16 0.00962857
R701 VDD.n272 VDD.n16 0.00962857
R702 VDD.n272 VDD.n14 0.00962857
R703 VDD.n276 VDD.n14 0.00962857
R704 VDD.n276 VDD.n12 0.00962857
R705 VDD.n280 VDD.n12 0.00962857
R706 VDD.n280 VDD.n10 0.00962857
R707 VDD.n284 VDD.n10 0.00962857
R708 VDD.n284 VDD.n8 0.00962857
R709 VDD.n288 VDD.n8 0.00962857
R710 VDD.n288 VDD.n6 0.00962857
R711 VDD.n292 VDD.n6 0.00962857
R712 VDD.n292 VDD.n4 0.00962857
R713 VDD.n608 VDD.n4 0.00962857
R714 VDD.n619 VDD.n2 0.00962857
R715 VDD.n615 VDD.n2 0.00962857
R716 VDD.n615 VDD.n611 0.00962857
R717 VDD.n103 VDD.n102 0.00962857
R718 VDD.n103 VDD.n97 0.00962857
R719 VDD.n109 VDD.n97 0.00962857
R720 VDD.n110 VDD.n109 0.00962857
R721 VDD.n111 VDD.n110 0.00962857
R722 VDD.n111 VDD.n93 0.00962857
R723 VDD.n117 VDD.n93 0.00962857
R724 VDD.n118 VDD.n117 0.00962857
R725 VDD.n119 VDD.n118 0.00962857
R726 VDD.n119 VDD.n89 0.00962857
R727 VDD.n125 VDD.n89 0.00962857
R728 VDD.n126 VDD.n125 0.00962857
R729 VDD.n127 VDD.n126 0.00962857
R730 VDD.n127 VDD.n85 0.00962857
R731 VDD.n133 VDD.n85 0.00962857
R732 VDD.n134 VDD.n133 0.00962857
R733 VDD.n135 VDD.n134 0.00962857
R734 VDD.n135 VDD.n81 0.00962857
R735 VDD.n141 VDD.n81 0.00962857
R736 VDD.n142 VDD.n141 0.00962857
R737 VDD.n143 VDD.n142 0.00962857
R738 VDD.n143 VDD.n77 0.00962857
R739 VDD.n149 VDD.n77 0.00962857
R740 VDD.n150 VDD.n149 0.00962857
R741 VDD.n151 VDD.n150 0.00962857
R742 VDD.n151 VDD.n73 0.00962857
R743 VDD.n157 VDD.n73 0.00962857
R744 VDD.n158 VDD.n157 0.00962857
R745 VDD.n159 VDD.n158 0.00962857
R746 VDD.n159 VDD.n69 0.00962857
R747 VDD.n165 VDD.n69 0.00962857
R748 VDD.n166 VDD.n165 0.00962857
R749 VDD.n167 VDD.n166 0.00962857
R750 VDD.n167 VDD.n65 0.00962857
R751 VDD.n173 VDD.n65 0.00962857
R752 VDD.n174 VDD.n173 0.00962857
R753 VDD.n175 VDD.n174 0.00962857
R754 VDD.n175 VDD.n61 0.00962857
R755 VDD.n181 VDD.n61 0.00962857
R756 VDD.n182 VDD.n181 0.00962857
R757 VDD.n183 VDD.n182 0.00962857
R758 VDD.n183 VDD.n57 0.00962857
R759 VDD.n189 VDD.n57 0.00962857
R760 VDD.n190 VDD.n189 0.00962857
R761 VDD.n191 VDD.n190 0.00962857
R762 VDD.n191 VDD.n53 0.00962857
R763 VDD.n197 VDD.n53 0.00962857
R764 VDD.n198 VDD.n197 0.00962857
R765 VDD.n199 VDD.n198 0.00962857
R766 VDD.n199 VDD.n49 0.00962857
R767 VDD.n205 VDD.n49 0.00962857
R768 VDD.n206 VDD.n205 0.00962857
R769 VDD.n207 VDD.n206 0.00962857
R770 VDD.n207 VDD.n45 0.00962857
R771 VDD.n213 VDD.n45 0.00962857
R772 VDD.n214 VDD.n213 0.00962857
R773 VDD.n215 VDD.n214 0.00962857
R774 VDD.n215 VDD.n41 0.00962857
R775 VDD.n221 VDD.n41 0.00962857
R776 VDD.n222 VDD.n221 0.00962857
R777 VDD.n223 VDD.n222 0.00962857
R778 VDD.n223 VDD.n37 0.00962857
R779 VDD.n229 VDD.n37 0.00962857
R780 VDD.n230 VDD.n229 0.00962857
R781 VDD.n231 VDD.n230 0.00962857
R782 VDD.n231 VDD.n33 0.00962857
R783 VDD.n237 VDD.n33 0.00962857
R784 VDD.n238 VDD.n237 0.00962857
R785 VDD.n239 VDD.n238 0.00962857
R786 VDD.n239 VDD.n29 0.00962857
R787 VDD.n245 VDD.n29 0.00962857
R788 VDD.n246 VDD.n245 0.00962857
R789 VDD.n247 VDD.n246 0.00962857
R790 VDD.n247 VDD.n25 0.00962857
R791 VDD.n253 VDD.n25 0.00962857
R792 VDD.n254 VDD.n253 0.00962857
R793 VDD.n255 VDD.n254 0.00962857
R794 VDD.n255 VDD.n21 0.00962857
R795 VDD.n261 VDD.n21 0.00962857
R796 VDD.n262 VDD.n261 0.00962857
R797 VDD.n263 VDD.n262 0.00962857
R798 VDD.n263 VDD.n17 0.00962857
R799 VDD.n269 VDD.n17 0.00962857
R800 VDD.n270 VDD.n269 0.00962857
R801 VDD.n271 VDD.n270 0.00962857
R802 VDD.n271 VDD.n13 0.00962857
R803 VDD.n277 VDD.n13 0.00962857
R804 VDD.n278 VDD.n277 0.00962857
R805 VDD.n279 VDD.n278 0.00962857
R806 VDD.n279 VDD.n9 0.00962857
R807 VDD.n285 VDD.n9 0.00962857
R808 VDD.n286 VDD.n285 0.00962857
R809 VDD.n287 VDD.n286 0.00962857
R810 VDD.n287 VDD.n5 0.00962857
R811 VDD.n293 VDD.n5 0.00962857
R812 VDD.n294 VDD.n293 0.00962857
R813 VDD.n620 VDD.n1 0.00962857
R814 VDD.n614 VDD.n1 0.00962857
R815 VDD.n614 VDD.n613 0.00962857
R816 VDD.n613 VDD.n612 0.00962857
R817 VDD.n102 VDD 0.00866429
R818 VDD.n601 VDD 0.00782857
R819 VDD.n608 VDD 0.00782857
R820 VDD.n591 VDD 0.0059
R821 VDD.n603 VDD.n296 0.00583571
R822 VDD.n606 VDD.n294 0.00583571
R823 VDD.n611 VDD.n610 0.00549838
R824 VDD.n393 VDD.n392 0.00547354